[TITLE]


[JUNCTIONS]
;ID              	Elev        	Demand      	Pattern         

[RESERVOIRS]
;ID              	Head        	Pattern         

[TANKS]
;ID              	Elevation   	InitLevel   	MinLevel    	MaxLevel    	Diameter    	MinVol      	VolCurve

[PIPES]
;ID              	Node1           	Node2           	Length      	Diameter    	Roughness   	MinorLoss   	Status

[PUMPS]
;ID              	Node1           	Node2           	Parameters

[VALVES]
;ID              	Node1           	Node2           	Diameter    	Type	Setting     	MinorLoss   

[TAGS]

[DEMANDS]
;Junction        	Demand      	Pattern         	Category

[STATUS]
;ID              	Status/Setting
;V02 Open
;V03 Open
;V04 Open

[PATTERNS]
;ID              	Multipliers

[CURVES]
;ID              	X-Value     	Y-Value
;PUMP: BOMBA: KSB - MEGANORM 32-125.1 (Rotor 129)
b32-125_1r130	0.0000	8
b32-125_1r130	0.0056	7.95
b32-125_1r130	0.5611	7.85
b32-125_1r130	1.1167	7.6
b32-125_1r130	1.6722	7.3
b32-125_1r130	2.2278	6.6
b32-125_1r130	2.7833	5.8
b32-125_1r130	3.1444	5.2

[CONTROLS]

[RULES]

[ENERGY]
 Global Efficiency  	75
 Global Price       	0
 Demand Charge      	0

[EMITTERS]
;Junction        	Coefficient

[QUALITY]
;Node            	InitQual

[SOURCES]
;Node            	Type        	Quality     	Pattern

[REACTIONS]
;Type     	Pipe/Tank       	Coefficient


[REACTIONS]
 Order Bulk            	1
 Order Tank            	1
 Order Wall            	1
 Global Bulk           	0
 Global Wall           	0
 Limiting Potential    	0
 Roughness Correlation 	0

[MIXING]
;Tank            	Model

[TIMES]
 Duration           	0
 Hydraulic Timestep 	1:00
 Quality Timestep   	0:05
 Pattern Timestep   	1:00
 Pattern Start      	0:00
 Report Timestep    	1:00
 Report Start       	0:00
 Start ClockTime    	12 am
 Statistic          	None

[REPORT]
 Status             	No
 Summary            	No
 Page               	0

[OPTIONS]
 Units                  LPS	
 Headloss           	D-W
 Specific Gravity   	1
 Viscosity          	1
 Trials             	40
 Accuracy           	0.001
 CHECKFREQ          	2
 MAXCHECK           	10
 DAMPLIMIT          	0
 Unbalanced         	Continue 10
 Pattern            	1
 Demand Multiplier  	1.0
 Emitter Exponent   	0.5
 Quality            	None mg/L
 Diffusivity        	1
 Tolerance          	0.01

[COORDINATES]
;Node            	X-Coord         	Y-Coord

[VERTICES]
;Link            	X-Coord         	Y-Coord

[LABELS]
;X-Coord           Y-Coord          Label & Anchor Node

[BACKDROP]

[END]
